L24/1726532/Reguladores.dss
! REGULADORES — gerados de UNREMT
! vreg = 122 V e band = 2 V — AJUSTES TIPICOS, nao de campo.
! kVA = 5000 adotado; a BDGD nao traz a potencia do regulador.
! O ptratio segue a tensao de cada alimentador (TP para 120 V).
New Transformer.REG_349523446_1 phases=1 windings=2 XHL=0.04
~ buses=[segm_349523495.1 segm_349523434.1] conns=[wye wye]
~ kVs=[7.9674 7.9674] kVAs=[5000 5000] %Rs=[0.01 0.01]
~ maxtap=1.10 mintap=0.90 numtaps=32
New RegControl.RC_REG_349523446_1 transformer=REG_349523446_1 winding=2 vreg=122 band=2 ptratio=66.4 delay=15 maxtapchange=1
New Transformer.REG_349523446_2 phases=1 windings=2 XHL=0.04
~ buses=[segm_349523495.2 segm_349523434.2] conns=[wye wye]
~ kVs=[7.9674 7.9674] kVAs=[5000 5000] %Rs=[0.01 0.01]
~ maxtap=1.10 mintap=0.90 numtaps=32
New RegControl.RC_REG_349523446_2 transformer=REG_349523446_2 winding=2 vreg=122 band=2 ptratio=66.4 delay=15 maxtapchange=1
New Transformer.REG_349523446_3 phases=1 windings=2 XHL=0.04
~ buses=[segm_349523495.3 segm_349523434.3] conns=[wye wye]
~ kVs=[7.9674 7.9674] kVAs=[5000 5000] %Rs=[0.01 0.01]
~ maxtap=1.10 mintap=0.90 numtaps=32
New RegControl.RC_REG_349523446_3 transformer=REG_349523446_3 winding=2 vreg=122 band=2 ptratio=66.4 delay=15 maxtapchange=1
New Transformer.REG_349523520_1 phases=1 windings=2 XHL=0.04
~ buses=[segm_349523569.1 segm_349523508.1] conns=[wye wye]
~ kVs=[7.9674 7.9674] kVAs=[5000 5000] %Rs=[0.01 0.01]
~ maxtap=1.10 mintap=0.90 numtaps=32
New RegControl.RC_REG_349523520_1 transformer=REG_349523520_1 winding=2 vreg=122 band=2 ptratio=66.4 delay=15 maxtapchange=1
New Transformer.REG_349523520_2 phases=1 windings=2 XHL=0.04
~ buses=[segm_349523569.2 segm_349523508.2] conns=[wye wye]
~ kVs=[7.9674 7.9674] kVAs=[5000 5000] %Rs=[0.01 0.01]
~ maxtap=1.10 mintap=0.90 numtaps=32
New RegControl.RC_REG_349523520_2 transformer=REG_349523520_2 winding=2 vreg=122 band=2 ptratio=66.4 delay=15 maxtapchange=1
New Transformer.REG_349523520_3 phases=1 windings=2 XHL=0.04
~ buses=[segm_349523569.3 segm_349523508.3] conns=[wye wye]
~ kVs=[7.9674 7.9674] kVAs=[5000 5000] %Rs=[0.01 0.01]
~ maxtap=1.10 mintap=0.90 numtaps=32
New RegControl.RC_REG_349523520_3 transformer=REG_349523520_3 winding=2 vreg=122 band=2 ptratio=66.4 delay=15 maxtapchange=1
New Transformer.REG_349523594_1 phases=1 windings=2 XHL=0.04
~ buses=[segm_349523582.1 segm_349523575.1] conns=[wye wye]
~ kVs=[7.9674 7.9674] kVAs=[5000 5000] %Rs=[0.01 0.01]
~ maxtap=1.10 mintap=0.90 numtaps=32
New RegControl.RC_REG_349523594_1 transformer=REG_349523594_1 winding=2 vreg=122 band=2 ptratio=66.4 delay=15 maxtapchange=1
New Transformer.REG_349523594_2 phases=1 windings=2 XHL=0.04
~ buses=[segm_349523582.2 segm_349523575.2] conns=[wye wye]
~ kVs=[7.9674 7.9674] kVAs=[5000 5000] %Rs=[0.01 0.01]
~ maxtap=1.10 mintap=0.90 numtaps=32
New RegControl.RC_REG_349523594_2 transformer=REG_349523594_2 winding=2 vreg=122 band=2 ptratio=66.4 delay=15 maxtapchange=1
New Transformer.REG_349523594_3 phases=1 windings=2 XHL=0.04
~ buses=[segm_349523582.3 segm_349523575.3] conns=[wye wye]
~ kVs=[7.9674 7.9674] kVAs=[5000 5000] %Rs=[0.01 0.01]
~ maxtap=1.10 mintap=0.90 numtaps=32
New RegControl.RC_REG_349523594_3 transformer=REG_349523594_3 winding=2 vreg=122 band=2 ptratio=66.4 delay=15 maxtapchange=1
New Transformer.REG_349523668_1 phases=1 windings=2 XHL=0.04
~ buses=[segm_349523717.1 segm_349523656.1] conns=[wye wye]
~ kVs=[7.9674 7.9674] kVAs=[5000 5000] %Rs=[0.01 0.01]
~ maxtap=1.10 mintap=0.90 numtaps=32
New RegControl.RC_REG_349523668_1 transformer=REG_349523668_1 winding=2 vreg=122 band=2 ptratio=66.4 delay=15 maxtapchange=1
New Transformer.REG_349523668_2 phases=1 windings=2 XHL=0.04
~ buses=[segm_349523717.2 segm_349523656.2] conns=[wye wye]
~ kVs=[7.9674 7.9674] kVAs=[5000 5000] %Rs=[0.01 0.01]
~ maxtap=1.10 mintap=0.90 numtaps=32
New RegControl.RC_REG_349523668_2 transformer=REG_349523668_2 winding=2 vreg=122 band=2 ptratio=66.4 delay=15 maxtapchange=1
New Transformer.REG_349523668_3 phases=1 windings=2 XHL=0.04
~ buses=[segm_349523717.3 segm_349523656.3] conns=[wye wye]
~ kVs=[7.9674 7.9674] kVAs=[5000 5000] %Rs=[0.01 0.01]
~ maxtap=1.10 mintap=0.90 numtaps=32
New RegControl.RC_REG_349523668_3 transformer=REG_349523668_3 winding=2 vreg=122 band=2 ptratio=66.4 delay=15 maxtapchange=1
New Transformer.REG_349523742_1 phases=1 windings=2 XHL=0.04
~ buses=[segm_349523791.1 segm_349523730.1] conns=[wye wye]
~ kVs=[7.9674 7.9674] kVAs=[5000 5000] %Rs=[0.01 0.01]
~ maxtap=1.10 mintap=0.90 numtaps=32
New RegControl.RC_REG_349523742_1 transformer=REG_349523742_1 winding=2 vreg=122 band=2 ptratio=66.4 delay=15 maxtapchange=1
New Transformer.REG_349523742_2 phases=1 windings=2 XHL=0.04
~ buses=[segm_349523791.2 segm_349523730.2] conns=[wye wye]
~ kVs=[7.9674 7.9674] kVAs=[5000 5000] %Rs=[0.01 0.01]
~ maxtap=1.10 mintap=0.90 numtaps=32
New RegControl.RC_REG_349523742_2 transformer=REG_349523742_2 winding=2 vreg=122 band=2 ptratio=66.4 delay=15 maxtapchange=1
New Transformer.REG_349523742_3 phases=1 windings=2 XHL=0.04
~ buses=[segm_349523791.3 segm_349523730.3] conns=[wye wye]
~ kVs=[7.9674 7.9674] kVAs=[5000 5000] %Rs=[0.01 0.01]
~ maxtap=1.10 mintap=0.90 numtaps=32
New RegControl.RC_REG_349523742_3 transformer=REG_349523742_3 winding=2 vreg=122 band=2 ptratio=66.4 delay=15 maxtapchange=1
New Transformer.REG_349523816_1 phases=1 windings=2 XHL=0.04
~ buses=[segm_349523865.1 segm_349523804.1] conns=[wye wye]
~ kVs=[7.9674 7.9674] kVAs=[5000 5000] %Rs=[0.01 0.01]
~ maxtap=1.10 mintap=0.90 numtaps=32
New RegControl.RC_REG_349523816_1 transformer=REG_349523816_1 winding=2 vreg=122 band=2 ptratio=66.4 delay=15 maxtapchange=1
New Transformer.REG_349523816_2 phases=1 windings=2 XHL=0.04
~ buses=[segm_349523865.2 segm_349523804.2] conns=[wye wye]
~ kVs=[7.9674 7.9674] kVAs=[5000 5000] %Rs=[0.01 0.01]
~ maxtap=1.10 mintap=0.90 numtaps=32
New RegControl.RC_REG_349523816_2 transformer=REG_349523816_2 winding=2 vreg=122 band=2 ptratio=66.4 delay=15 maxtapchange=1
New Transformer.REG_349523816_3 phases=1 windings=2 XHL=0.04
~ buses=[segm_349523865.3 segm_349523804.3] conns=[wye wye]
~ kVs=[7.9674 7.9674] kVAs=[5000 5000] %Rs=[0.01 0.01]
~ maxtap=1.10 mintap=0.90 numtaps=32
New RegControl.RC_REG_349523816_3 transformer=REG_349523816_3 winding=2 vreg=122 band=2 ptratio=66.4 delay=15 maxtapchange=1
New Transformer.REG_349523890_1 phases=1 windings=2 XHL=0.04
~ buses=[segm_349523939.1 segm_349523878.1] conns=[wye wye]
~ kVs=[7.9674 7.9674] kVAs=[5000 5000] %Rs=[0.01 0.01]
~ maxtap=1.10 mintap=0.90 numtaps=32
New RegControl.RC_REG_349523890_1 transformer=REG_349523890_1 winding=2 vreg=122 band=2 ptratio=66.4 delay=15 maxtapchange=1
New Transformer.REG_349523890_2 phases=1 windings=2 XHL=0.04
~ buses=[segm_349523939.2 segm_349523878.2] conns=[wye wye]
~ kVs=[7.9674 7.9674] kVAs=[5000 5000] %Rs=[0.01 0.01]
~ maxtap=1.10 mintap=0.90 numtaps=32
New RegControl.RC_REG_349523890_2 transformer=REG_349523890_2 winding=2 vreg=122 band=2 ptratio=66.4 delay=15 maxtapchange=1
New Transformer.REG_349523890_3 phases=1 windings=2 XHL=0.04
~ buses=[segm_349523939.3 segm_349523878.3] conns=[wye wye]
~ kVs=[7.9674 7.9674] kVAs=[5000 5000] %Rs=[0.01 0.01]
~ maxtap=1.10 mintap=0.90 numtaps=32
New RegControl.RC_REG_349523890_3 transformer=REG_349523890_3 winding=2 vreg=122 band=2 ptratio=66.4 delay=15 maxtapchange=1
New Transformer.REG_1856897751_1 phases=1 windings=2 XHL=0.04
~ buses=[segm_1856897809.1 segm_1856897758.1] conns=[wye wye]
~ kVs=[7.9674 7.9674] kVAs=[5000 5000] %Rs=[0.01 0.01]
~ maxtap=1.10 mintap=0.90 numtaps=32
New RegControl.RC_REG_1856897751_1 transformer=REG_1856897751_1 winding=2 vreg=122 band=2 ptratio=66.4 delay=15 maxtapchange=1
New Transformer.REG_1856897751_2 phases=1 windings=2 XHL=0.04
~ buses=[segm_1856897809.2 segm_1856897758.2] conns=[wye wye]
~ kVs=[7.9674 7.9674] kVAs=[5000 5000] %Rs=[0.01 0.01]
~ maxtap=1.10 mintap=0.90 numtaps=32
New RegControl.RC_REG_1856897751_2 transformer=REG_1856897751_2 winding=2 vreg=122 band=2 ptratio=66.4 delay=15 maxtapchange=1
New Transformer.REG_1856897751_3 phases=1 windings=2 XHL=0.04
~ buses=[segm_1856897809.3 segm_1856897758.3] conns=[wye wye]
~ kVs=[7.9674 7.9674] kVAs=[5000 5000] %Rs=[0.01 0.01]
~ maxtap=1.10 mintap=0.90 numtaps=32
New RegControl.RC_REG_1856897751_3 transformer=REG_1856897751_3 winding=2 vreg=122 band=2 ptratio=66.4 delay=15 maxtapchange=1
New Transformer.REG_2401299280_1 phases=1 windings=2 XHL=0.04
~ buses=[segm_2401299338.1 segm_2401299287.1] conns=[wye wye]
~ kVs=[7.9674 7.9674] kVAs=[5000 5000] %Rs=[0.01 0.01]
~ maxtap=1.10 mintap=0.90 numtaps=32
New RegControl.RC_REG_2401299280_1 transformer=REG_2401299280_1 winding=2 vreg=122 band=2 ptratio=66.4 delay=15 maxtapchange=1
New Transformer.REG_2401299280_2 phases=1 windings=2 XHL=0.04
~ buses=[segm_2401299338.2 segm_2401299287.2] conns=[wye wye]
~ kVs=[7.9674 7.9674] kVAs=[5000 5000] %Rs=[0.01 0.01]
~ maxtap=1.10 mintap=0.90 numtaps=32
New RegControl.RC_REG_2401299280_2 transformer=REG_2401299280_2 winding=2 vreg=122 band=2 ptratio=66.4 delay=15 maxtapchange=1
New Transformer.REG_2401299280_3 phases=1 windings=2 XHL=0.04
~ buses=[segm_2401299338.3 segm_2401299287.3] conns=[wye wye]
~ kVs=[7.9674 7.9674] kVAs=[5000 5000] %Rs=[0.01 0.01]
~ maxtap=1.10 mintap=0.90 numtaps=32
New RegControl.RC_REG_2401299280_3 transformer=REG_2401299280_3 winding=2 vreg=122 band=2 ptratio=66.4 delay=15 maxtapchange=1
New Transformer.REG_2593704830_1 phases=1 windings=2 XHL=0.04
~ buses=[segm_2593704888.1 segm_2593704837.1] conns=[wye wye]
~ kVs=[7.9674 7.9674] kVAs=[5000 5000] %Rs=[0.01 0.01]
~ maxtap=1.10 mintap=0.90 numtaps=32
New RegControl.RC_REG_2593704830_1 transformer=REG_2593704830_1 winding=2 vreg=122 band=2 ptratio=66.4 delay=15 maxtapchange=1
New Transformer.REG_2593704830_2 phases=1 windings=2 XHL=0.04
~ buses=[segm_2593704888.2 segm_2593704837.2] conns=[wye wye]
~ kVs=[7.9674 7.9674] kVAs=[5000 5000] %Rs=[0.01 0.01]
~ maxtap=1.10 mintap=0.90 numtaps=32
New RegControl.RC_REG_2593704830_2 transformer=REG_2593704830_2 winding=2 vreg=122 band=2 ptratio=66.4 delay=15 maxtapchange=1
New Transformer.REG_2593704830_3 phases=1 windings=2 XHL=0.04
~ buses=[segm_2593704888.3 segm_2593704837.3] conns=[wye wye]
~ kVs=[7.9674 7.9674] kVAs=[5000 5000] %Rs=[0.01 0.01]
~ maxtap=1.10 mintap=0.90 numtaps=32
New RegControl.RC_REG_2593704830_3 transformer=REG_2593704830_3 winding=2 vreg=122 band=2 ptratio=66.4 delay=15 maxtapchange=1
New Transformer.REG_2680121897_1 phases=1 windings=2 XHL=0.04
~ buses=[segm_2680121904.1 segm_2680121955.1] conns=[wye wye]
~ kVs=[7.9674 7.9674] kVAs=[5000 5000] %Rs=[0.01 0.01]
~ maxtap=1.10 mintap=0.90 numtaps=32
New RegControl.RC_REG_2680121897_1 transformer=REG_2680121897_1 winding=2 vreg=122 band=2 ptratio=66.4 delay=15 maxtapchange=1
New Transformer.REG_2680121897_2 phases=1 windings=2 XHL=0.04
~ buses=[segm_2680121904.2 segm_2680121955.2] conns=[wye wye]
~ kVs=[7.9674 7.9674] kVAs=[5000 5000] %Rs=[0.01 0.01]
~ maxtap=1.10 mintap=0.90 numtaps=32
New RegControl.RC_REG_2680121897_2 transformer=REG_2680121897_2 winding=2 vreg=122 band=2 ptratio=66.4 delay=15 maxtapchange=1
New Transformer.REG_2680121897_3 phases=1 windings=2 XHL=0.04
~ buses=[segm_2680121904.3 segm_2680121955.3] conns=[wye wye]
~ kVs=[7.9674 7.9674] kVAs=[5000 5000] %Rs=[0.01 0.01]
~ maxtap=1.10 mintap=0.90 numtaps=32
New RegControl.RC_REG_2680121897_3 transformer=REG_2680121897_3 winding=2 vreg=122 band=2 ptratio=66.4 delay=15 maxtapchange=1
